Version 4
SHEET 1 1328 680
WIRE 752 16 496 16
WIRE 992 16 992 0
WIRE 992 16 752 16
WIRE 496 64 496 16
WIRE 496 64 240 64
WIRE 800 64 672 64
WIRE 752 80 752 16
WIRE 992 80 992 16
WIRE 1088 80 992 80
WIRE 496 96 496 64
WIRE 672 96 672 64
WIRE 720 96 672 96
WIRE 992 96 992 80
WIRE 464 112 304 112
WIRE 800 112 800 64
WIRE 800 112 784 112
WIRE 816 112 800 112
WIRE 1088 112 1088 80
WIRE 640 128 608 128
WIRE 688 128 640 128
WIRE 720 128 688 128
WIRE 816 128 816 112
WIRE 352 144 336 144
WIRE 464 144 432 144
WIRE 896 144 896 128
WIRE 928 144 896 144
WIRE 240 208 240 64
WIRE 352 208 240 208
WIRE 432 208 432 144
WIRE 464 208 432 208
WIRE 592 208 544 208
WIRE 640 208 640 192
WIRE 992 224 992 192
WIRE 1088 224 1088 176
WIRE 1088 224 992 224
WIRE 496 240 496 160
WIRE 576 240 496 240
WIRE 592 256 592 208
WIRE 688 256 688 128
WIRE 688 256 592 256
WIRE 992 256 992 224
WIRE 576 288 576 240
WIRE 752 288 752 144
WIRE 752 288 576 288
WIRE 304 368 304 112
WIRE 576 368 304 368
WIRE 992 368 992 336
WIRE 992 368 576 368
WIRE 576 416 576 368
WIRE 576 528 576 496
FLAG 576 528 0
FLAG 992 -80 0
FLAG 496 320 0
FLAG 336 144 0
FLAG 640 208 0
FLAG 304 448 0
SYMBOL npn 928 96 R0
SYMATTR InstName Q3
SYMATTR Value BC547C
SYMBOL res 912 112 R90
WINDOW 0 0 56 VBottom 2
WINDOW 3 32 56 VTop 2
SYMATTR InstName R5
SYMATTR Value 200
SYMBOL cap 1072 112 R0
SYMATTR InstName C1
SYMATTR Value 470p
SYMBOL res 976 240 R0
SYMATTR InstName R6
SYMATTR Value 1k
SYMBOL current 576 416 R0
WINDOW 123 0 0 Left 2
WINDOW 39 24 108 Left 2
SYMATTR SpiceLine load
SYMATTR InstName I1
SYMATTR Value {ITUNE}
SYMBOL voltage 992 16 R180
WINDOW 0 24 96 Left 2
WINDOW 3 24 16 Left 2
WINDOW 123 0 0 Left 2
WINDOW 39 0 0 Left 2
SYMATTR InstName V1
SYMATTR Value 15
SYMBOL Opamps\\OP492 496 64 R0
SYMATTR InstName U1
SYMBOL voltage 496 336 R180
WINDOW 0 24 96 Left 2
WINDOW 3 24 16 Left 2
WINDOW 123 0 0 Left 2
WINDOW 39 0 0 Left 2
SYMATTR InstName V2
SYMATTR Value 15
SYMBOL res 448 128 R90
WINDOW 0 0 56 VBottom 2
WINDOW 3 32 56 VTop 2
SYMATTR InstName R1
SYMATTR Value 50K
SYMBOL res 560 192 R90
WINDOW 0 0 56 VBottom 2
WINDOW 3 32 56 VTop 2
SYMATTR InstName R2
SYMATTR Value 50K
SYMBOL res 448 192 R90
WINDOW 0 0 56 VBottom 2
WINDOW 3 32 56 VTop 2
SYMATTR InstName R3
SYMATTR Value 200K
SYMBOL zener 656 192 R180
WINDOW 0 24 64 Left 2
WINDOW 3 24 0 Left 2
SYMATTR InstName D1
SYMATTR Value 1N750
SYMBOL res 624 112 R90
WINDOW 0 0 56 VBottom 2
WINDOW 3 32 56 VTop 2
SYMATTR InstName R4
SYMATTR Value 1000
SYMBOL res 288 352 R0
SYMATTR InstName R7
SYMATTR Value 1000000
SYMBOL Opamps\\OP492 752 48 R0
SYMATTR InstName U2
TEXT 40 32 Left 2 !.tran 0 30m 0 startup
TEXT 1152 368 Left 2 !.param ITUNE=I
TEXT 816 464 Left 2 !.step oct param ITUNE 0.1u 20u 1
