Version 4
SHEET 1 1188 680
WIRE 672 0 672 -48
WIRE 992 0 672 0
WIRE 992 80 992 0
WIRE 1088 80 992 80
WIRE 992 96 992 80
WIRE 752 112 720 112
WIRE 1088 112 1088 80
WIRE 896 144 896 128
WIRE 928 144 896 144
WIRE 992 224 992 192
WIRE 1088 224 1088 176
WIRE 1088 224 992 224
WIRE 992 256 992 224
WIRE 720 368 720 112
WIRE 720 368 576 368
WIRE 992 368 992 336
WIRE 992 368 720 368
WIRE 576 416 576 368
WIRE 576 528 576 496
FLAG 672 -128 0
FLAG 576 528 0
SYMBOL Digital\\schmitt 752 48 R0
WINDOW 3 0 0 Invisible 2
SYMATTR InstName A1
SYMATTR Value VHigh=4 Vt=1.2 Vh=.4 Trise=.1u Tfall=.1u
SYMBOL npn 928 96 R0
SYMATTR InstName Q3
SYMATTR Value BC547C
SYMBOL res 912 112 R90
WINDOW 0 0 56 VBottom 2
WINDOW 3 32 56 VTop 2
SYMATTR InstName R5
SYMATTR Value 200
SYMBOL cap 1072 112 R0
SYMATTR InstName C1
SYMATTR Value 470p
SYMBOL res 976 240 R0
SYMATTR InstName R6
SYMATTR Value 2.5K
SYMBOL voltage 672 -32 R180
WINDOW 0 24 96 Left 2
WINDOW 3 24 16 Left 2
WINDOW 123 0 0 Left 2
WINDOW 39 0 0 Left 2
SYMATTR InstName V3
SYMATTR Value 5
SYMBOL current 576 416 R0
WINDOW 123 0 0 Left 2
WINDOW 39 0 0 Left 2
SYMATTR InstName I1
SYMATTR Value 5µ
TEXT 30 552 Left 2 !.tran 0 1m 0 startup
